# created with PyMOL 2.3.0
@<TRIPOS>MOLECULE
5amu
34 35 1                 
SMALL
USER_CHARGES
@<TRIPOS>ATOM
1	  C1	11.463	37.195	31.481	C.3	1	AMU1	0.000	
2	  N1	8.550	35.910	35.032	N.2	1	AMU1	0.000	
3	  O1	11.222	38.548	31.534	O.3	1	AMU1	0.000	
4	  C2	11.135	36.351	32.644	C.3	1	AMU1	0.000	
5	  N2	7.218	35.809	36.967	N.2	1	AMU1	0.000	
6	  O2	11.744	34.242	32.084	O.3	1	AMU1	0.000	
7	  C3	10.597	35.078	32.109	C.3	1	AMU1	0.000	
8	  N3	5.663	37.637	32.783	N.3	1	AMU1	0.000	
9	  O3	9.596	33.334	33.505	O.3	1	AMU1	0.000	
10	  C4	9.547	34.706	33.106	C.3	1	AMU1	0.000	
11	  N4	4.888	38.173	31.954	N.3	1	AMU1	0.000	
12	  O4	10.410	36.806	33.782	O.3	1	AMU1	0.000	
13	  C5	9.812	35.638	34.324	C.3	1	AMU1	0.000	
14	  N5	4.188	38.656	31.203	N.3	1	AMU1	0.000	
15	  O5	9.348	35.020	37.026	O.2	1	AMU1	0.000	
16	  C6	8.446	35.538	36.391	C.2	1	AMU1	0.000	
17	  O6	5.054	36.571	37.003	O.2	1	AMU1	0.000	
18	  C7	6.093	36.397	36.351	C.2	1	AMU1	0.000	
19	  C8	6.267	36.753	34.968	C.2	1	AMU1	0.000	
20	  C9	7.484	36.494	34.365	C.2	1	AMU1	0.000	
21	 C10	5.208	37.387	34.158	C.3	1	AMU1	0.000	
22	  H1	11.176	38.901	30.642	 H	1	AMU1	0.000	
23	  H2	12.529	37.070	31.289	 H	1	AMU1	0.000	
24	  H3	10.777	36.844	30.710	 H	1	AMU1	0.000	
25	  H4	12.093	36.302	33.161	 H	1	AMU1	0.000	
26	  H5	10.138	35.057	31.120	 H	1	AMU1	0.000	
27	  H6	12.001	34.078	31.174	 H	1	AMU1	0.000	
28	  H7	8.554	34.829	32.674	 H	1	AMU1	0.000	
29	  H8	9.935	32.802	32.781	 H	1	AMU1	0.000	
30	  H9	10.472	35.193	35.068	 H	1	AMU1	0.000	
31	 H10	7.110	35.530	38.026	 H	1	AMU1	0.000	
32	 H11	7.611	36.761	33.316	 H	1	AMU1	0.000	
33	 H12	4.925	38.350	34.638	 H	1	AMU1	0.000	
34	 H13	4.325	36.708	34.138	 H	1	AMU1	0.000	
@<TRIPOS>BOND
1 1 3 1
2 1 4 1
3 1 23 1
4 1 24 1
5 2 13 1
6 2 16 ar
7 2 20 ar
8 3 22 1
9 4 7 1
10 4 12 1
11 4 25 1
12 5 16 ar
13 5 18 ar
14 5 31 1
15 6 7 1
16 6 27 1
17 7 10 1
18 7 26 1
19 8 11 1
20 8 21 1
21 9 10 1
22 9 29 1
23 10 13 1
24 10 28 1
25 11 14 1
26 12 13 1
27 13 30 1
28 15 16 2
29 17 18 2
30 18 19 ar
31 19 20 ar
32 20 32 1
33 19 21 1
34 21 33 1
35 21 34 1
@<TRIPOS>SUBSTRUCTURE
1	AMU1	1	GROUP	1 B	AMU
