# created with PyMOL 2.3.0
@<TRIPOS>MOLECULE
5cpu
44 46 1                 
SMALL
USER_CHARGES
@<TRIPOS>ATOM
1	  C1	11.463	37.195	31.481	C.3	1	CPU1	0.000	
2	  N1	8.550	35.910	35.032	N.2	1	CPU1	0.000	
3	  O1	11.222	38.548	31.534	O.3	1	CPU1	0.000	
4	  C2	11.135	36.351	32.644	C.3	1	CPU1	0.000	
5	  N2	7.218	35.809	36.967	N.2	1	CPU1	0.000	
6	  O2	11.744	34.242	32.084	O.3	1	CPU1	0.000	
7	  C3	10.597	35.078	32.109	C.3	1	CPU1	0.000	
8	  O3	9.596	33.334	33.505	O.3	1	CPU1	0.000	
9	  C4	9.547	34.706	33.106	C.3	1	CPU1	0.000	
10	  O4	10.410	36.806	33.782	O.3	1	CPU1	0.000	
11	  C5	9.812	35.638	34.324	C.3	1	CPU1	0.000	
12	  O5	9.348	35.020	37.026	O.2	1	CPU1	0.000	
13	  C6	8.446	35.538	36.391	C.2	1	CPU1	0.000	
14	  O6	5.054	36.571	37.003	O.2	1	CPU1	0.000	
15	  C7	6.093	36.397	36.351	C.2	1	CPU1	0.000	
16	  O7	5.534	37.392	32.819	O.3	1	CPU1	0.000	
17	  C8	6.267	36.753	34.968	C.2	1	CPU1	0.000	
18	  C9	7.484	36.494	34.365	C.2	1	CPU1	0.000	
19	 C10	5.176	37.317	34.173	C.3	1	CPU1	0.000	
20	 C11	4.436	37.937	32.139	C.3	1	CPU1	0.000	
21	 C12	4.757	38.046	30.672	C.3	1	CPU1	0.000	
22	 C13	4.207	39.099	29.876	C.3	1	CPU1	0.000	
23	 C14	3.733	37.902	29.684	C.3	1	CPU1	0.000	
24	 C15	2.786	37.007	28.948	C.3	1	CPU1	0.000	
25	  H1	11.176	38.901	30.642	 H	1	CPU1	0.000	
26	  H2	12.529	37.070	31.289	 H	1	CPU1	0.000	
27	  H3	10.777	36.844	30.710	 H	1	CPU1	0.000	
28	  H4	12.093	36.302	33.161	 H	1	CPU1	0.000	
29	  H5	10.138	35.057	31.120	 H	1	CPU1	0.000	
30	  H6	12.001	34.078	31.174	 H	1	CPU1	0.000	
31	  H7	8.554	34.829	32.674	 H	1	CPU1	0.000	
32	  H8	9.935	32.802	32.781	 H	1	CPU1	0.000	
33	  H9	10.472	35.193	35.068	 H	1	CPU1	0.000	
34	 H10	7.110	35.530	38.026	 H	1	CPU1	0.000	
35	 H11	7.611	36.761	33.316	 H	1	CPU1	0.000	
36	 H12	4.942	38.337	34.551	 H	1	CPU1	0.000	
37	 H13	4.281	36.665	34.282	 H	1	CPU1	0.000	
38	 H15	3.550	37.276	32.277	 H	1	CPU1	0.000	
39	 H16	4.212	38.948	32.545	 H	1	CPU1	0.000	
40	 H17	5.737	37.624	30.877	 H	1	CPU1	0.000	
41	 H18	4.194	40.140	29.620	 H	1	CPU1	0.000	
42	 H19	2.904	35.962	29.311	 H	1	CPU1	0.000	
43	 H20	1.741	37.345	29.128	 H	1	CPU1	0.000	
44	 H21	3.008	37.048	27.858	 H	1	CPU1	0.000	
@<TRIPOS>BOND
1 1 3 1
2 1 4 1
3 1 26 1
4 1 27 1
5 2 13 ar
6 2 18 ar
7 3 25 1
8 4 7 1
9 4 10 1
10 4 28 1
11 5 13 ar
12 5 15 ar
13 5 34 1
14 6 7 1
15 6 30 1
16 7 9 1
17 7 29 1
18 8 9 1
19 8 32 1
20 9 11 1
21 9 31 1
22 10 11 1
23 2 11 1
24 11 33 1
25 12 13 2
26 14 15 2
27 15 17 ar
28 16 20 1
29 17 18 ar
30 18 35 1
31 16 19 1
32 17 19 1
33 19 36 1
34 19 37 1
35 20 21 1
36 20 38 1
37 20 39 1
38 21 22 1
39 21 23 1
40 21 40 1
41 22 41 1
42 22 23 1
43 23 24 1
44 24 42 1
45 24 43 1
46 24 44 1
@<TRIPOS>SUBSTRUCTURE
1	CPU1	1	GROUP	1 B	CPU
