# created with PyMOL 2.3.0
@<TRIPOS>MOLECULE
5dzu
41 43 1                 
SMALL
USER_CHARGES
@<TRIPOS>ATOM
1	  C1	11.463	37.195	31.481	C.3	1	DZU1	0.000	
2	  N1	8.550	35.910	35.032	N.2	1	DZU1	0.000	
3	  O1	11.222	38.548	31.534	O.3	1	DZU1	0.000	
4	  C2	11.135	36.351	32.644	C.3	1	DZU1	0.000	
5	  N2	7.218	35.809	36.967	N.2	1	DZU1	0.000	
6	  O2	11.744	34.242	32.084	O.3	1	DZU1	0.000	
7	  C3	10.597	35.078	32.109	C.3	1	DZU1	0.000	
8	  N3	3.138	37.943	32.451	N.3	1	DZU1	0.000	
9	  O3	9.596	33.334	33.505	O.3	1	DZU1	0.000	
10	  C4	9.547	34.706	33.106	C.3	1	DZU1	0.000	
11	  N4	3.904	39.218	32.279	N.3	1	DZU1	0.000	
12	  O4	10.410	36.806	33.782	O.3	1	DZU1	0.000	
13	  C5	9.812	35.638	34.324	C.3	1	DZU1	0.000	
14	  O5	9.348	35.020	37.026	O.2	1	DZU1	0.000	
15	  C6	8.446	35.538	36.391	C.2	1	DZU1	0.000	
16	  O6	5.054	36.571	37.003	O.2	1	DZU1	0.000	
17	  C7	6.093	36.397	36.351	C.2	1	DZU1	0.000	
18	  C8	6.267	36.753	34.968	C.2	1	DZU1	0.000	
19	  C9	7.484	36.494	34.365	C.2	1	DZU1	0.000	
20	 C10	5.174	37.317	34.173	C.3	1	DZU1	0.000	
21	 C11	5.564	37.399	32.703	C.3	1	DZU1	0.000	
22	 C12	4.422	37.978	31.912	C.3	1	DZU1	0.000	
23	 C13	5.006	37.453	30.628	C.3	1	DZU1	0.000	
24	  H1	11.176	38.901	30.642	 H	1	DZU1	0.000	
25	  H2	12.529	37.070	31.289	 H	1	DZU1	0.000	
26	  H3	10.777	36.844	30.710	 H	1	DZU1	0.000	
27	  H4	12.093	36.302	33.161	 H	1	DZU1	0.000	
28	  H5	10.138	35.057	31.120	 H	1	DZU1	0.000	
29	  H6	12.001	34.078	31.174	 H	1	DZU1	0.000	
30	  H7	8.554	34.829	32.674	 H	1	DZU1	0.000	
31	  H8	9.935	32.802	32.781	 H	1	DZU1	0.000	
32	  H9	10.472	35.193	35.068	 H	1	DZU1	0.000	
33	 H10	7.110	35.530	38.026	 H	1	DZU1	0.000	
34	 H11	7.611	36.761	33.316	 H	1	DZU1	0.000	
35	 H12	4.941	38.337	34.552	 H	1	DZU1	0.000	
36	 H13	4.280	36.664	34.283	 H	1	DZU1	0.000	
37	 H14	5.798	36.379	32.323	 H	1	DZU1	0.000	
38	 H15	6.459	38.051	32.592	 H	1	DZU1	0.000	
39	 H16	5.213	38.304	29.941	 H	1	DZU1	0.000	
40	 H17	5.956	36.914	30.845	 H	1	DZU1	0.000	
41	 H18	4.284	36.756	30.150	 H	1	DZU1	0.000	
@<TRIPOS>BOND
1 1 3 1
2 1 4 1
3 1 25 1
4 1 26 1
5 2 15 ar
6 2 19 ar
7 3 24 1
8 4 7 1
9 4 12 1
10 4 27 1
11 5 15 ar
12 5 17 ar
13 5 33 1
14 6 7 1
15 6 29 1
16 7 10 1
17 7 28 1
18 8 11 1
19 9 10 1
20 9 31 1
21 10 13 1
22 10 30 1
23 12 13 1
24 2 13 1
25 13 32 1
26 14 15 2
27 16 17 2
28 17 18 ar
29 18 19 ar
30 19 34 1
31 18 20 1
32 20 21 1
33 20 35 1
34 20 36 1
35 21 22 1
36 21 37 1
37 21 38 1
38 8 22 1
39 11 22 1
40 22 23 1
41 23 39 1
42 23 40 1
43 23 41 1
@<TRIPOS>SUBSTRUCTURE
1	DZU1	1	GROUP	1 B	DZU
