# created with PyMOL 2.3.0
@<TRIPOS>MOLECULE
cyclo
48 50 1                 
SMALL
USER_CHARGES
@<TRIPOS>ATOM
1	  C1	11.463	37.195	31.481	C.3	1	CYC1	0.000	
2	  N1	8.550	35.910	35.032	N.2	1	CYC1	0.000	
3	  O1	11.222	38.548	31.534	O.3	1	CYC1	0.000	
4	  C2	11.135	36.351	32.644	C.3	1	CYC1	0.000	
5	  N2	7.218	35.809	36.967	N.2	1	CYC1	0.000	
6	  O2	11.744	34.242	32.084	O.3	1	CYC1	0.000	
7	  C3	10.597	35.078	32.109	C.3	1	CYC1	0.000	
8	  N3	5.659	37.634	32.768	N.pl3	1	CYC1	0.000	
9	  O3	9.596	33.334	33.505	O.3	1	CYC1	0.000	
10	  C4	9.547	34.706	33.106	C.3	1	CYC1	0.000	
11	  O4	10.410	36.806	33.782	O.3	1	CYC1	0.000	
12	  C5	9.812	35.638	34.324	C.3	1	CYC1	0.000	
13	  O5	9.348	35.020	37.026	O.2	1	CYC1	0.000	
14	  C6	8.446	35.538	36.391	C.2	1	CYC1	0.000	
15	  O6	5.054	36.571	37.003	O.2	1	CYC1	0.000	
16	  C7	6.093	36.397	36.351	C.2	1	CYC1	0.000	
17	  O7	3.398	38.500	32.513	O.co2	1	CYC1	0.000	
18	  C8	6.267	36.753	34.968	C.2	1	CYC1	0.000	
19	  O8	4.683	38.540	30.645	O.3	1	CYC1	0.000	
20	  C9	7.484	36.494	34.365	C.2	1	CYC1	0.000	
21	 C10	5.233	37.420	34.136	C.3	1	CYC1	0.000	
22	 C11	4.468	38.248	32.017	C.2	1	CYC1	0.000	
23	 C12	3.696	39.423	30.112	C.3	1	CYC1	0.000	
24	 C13	3.821	39.433	28.578	C.3	1	CYC1	0.000	
25	 C14	4.851	40.307	27.935	C.3	1	CYC1	0.000	
26	 C15	3.348	40.690	27.838	C.3	1	CYC1	0.000	
27	 C16	2.271	41.677	27.350	C.3	1	CYC1	0.000	
28	  H1	11.176	38.901	30.642	 H	1	CYC1	0.000	
29	  H2	12.529	37.070	31.289	 H	1	CYC1	0.000	
30	  H3	10.777	36.844	30.710	 H	1	CYC1	0.000	
31	  H4	12.093	36.302	33.161	 H	1	CYC1	0.000	
32	  H5	10.138	35.057	31.120	 H	1	CYC1	0.000	
33	  H6	12.001	34.078	31.174	 H	1	CYC1	0.000	
34	  H7	8.554	34.829	32.674	 H	1	CYC1	0.000	
35	  H8	9.935	32.802	32.781	 H	1	CYC1	0.000	
36	  H9	10.472	35.193	35.068	 H	1	CYC1	0.000	
37	 H10	7.110	35.530	38.026	 H	1	CYC1	0.000	
38	 H11	7.611	36.761	33.316	 H	1	CYC1	0.000	
39	 H12	5.006	38.374	34.628	 H	1	CYC1	0.000	
40	 H13	4.361	36.751	34.198	 H	1	CYC1	0.000	
41	 H14	6.326	37.556	32.192	 H	1	CYC1	0.000	
42	 H15	3.861	40.416	30.533	 H	1	CYC1	0.000	
43	 H16	2.676	39.113	30.360	 H	1	CYC1	0.000	
44	 H17	3.642	38.465	28.112	 H	1	CYC1	0.000	
45	 H18	5.883	40.555	27.685	 H	1	CYC1	0.000	
46	 H19	1.283	41.251	27.521	 H	1	CYC1	0.000	
47	 H20	2.407	41.863	26.284	 H	1	CYC1	0.000	
48	 H21	2.363	42.616	27.896	 H	1	CYC1	0.000	
@<TRIPOS>BOND
1 1 3 1
2 1 4 1
3 1 29 1
4 1 30 1
5 2 14 ar
6 2 20 ar
7 3 28 1
8 4 7 1
9 4 11 1
10 4 31 1
11 5 14 ar
12 5 16 ar
13 5 37 1
14 6 7 1
15 6 33 1
16 7 10 1
17 7 32 1
18 8 21 1
19 8 22 1
20 8 41 1
21 9 10 1
22 9 35 1
23 10 12 1
24 10 34 1
25 11 12 1
26 2 12 1
27 12 36 1
28 13 14 2
29 15 16 2
30 16 18 ar
31 17 22 2
32 18 20 ar
33 19 22 1
34 19 23 1
35 20 38 1
36 18 21 1
37 21 39 1
38 21 40 1
39 23 24 1
40 23 42 1
41 23 43 1
42 24 26 1
43 24 44 1
44 24 25 1
45 25 26 1
46 25 45 1
47 26 27 1
48 27 46 1
49 27 47 1
50 27 48 1
@<TRIPOS>SUBSTRUCTURE
1	CYC1	1	GROUP	1 B	CYC
