# created with PyMOL 2.3.0
@<TRIPOS>MOLECULE
m5c
32 33 1                 
SMALL
USER_CHARGES
@<TRIPOS>ATOM
1	  C1	11.463	37.195	31.481	C.3	1	M5C1	0.000	
2	  N1	8.550	35.910	35.032	N.2	1	M5C1	0.000	
3	  O1	11.222	38.548	31.534	O.3	1	M5C1	0.000	
4	  C2	11.135	36.351	32.644	C.3	1	M5C1	0.000	
5	  N2	7.218	35.809	36.967	N.2	1	M5C1	0.000	
6	  O2	11.744	34.242	32.084	O.3	1	M5C1	0.000	
7	  C3	10.597	35.078	32.109	C.3	1	M5C1	0.000	
8	  O3	9.596	33.334	33.505	O.3	1	M5C1	0.000	
9	  C4	9.547	34.706	33.106	C.3	1	M5C1	0.000	
10	  O4	10.410	36.806	33.782	O.3	1	M5C1	0.000	
11	  C5	9.812	35.638	34.324	C.3	1	M5C1	0.000	
12	  O5	9.348	35.020	37.026	O.2	1	M5C1	0.000	
13	  C6	8.446	35.538	36.391	C.2	1	M5C1	0.000	
14	  O6	5.054	36.571	37.003	O.2	1	M5C1	0.000	
15	  C7	6.093	36.397	36.351	C.2	1	M5C1	0.000	
16	  C8	6.267	36.753	34.968	C.2	1	M5C1	0.000	
17	  C9	5.121	37.409	34.175	C.3	1	M5C1	0.000	
18	  C9	7.484	36.494	34.365	C.2	1	M5C1	0.000	
19	  H1	11.176	38.901	30.642	 H	1	M5C1	0.000	
20	  H2	12.529	37.070	31.289	 H	1	M5C1	0.000	
21	  H3	10.777	36.844	30.710	 H	1	M5C1	0.000	
22	  H4	12.093	36.302	33.161	 H	1	M5C1	0.000	
23	  H5	10.138	35.057	31.120	 H	1	M5C1	0.000	
24	  H6	12.001	34.078	31.174	 H	1	M5C1	0.000	
25	  H7	8.554	34.829	32.674	 H	1	M5C1	0.000	
26	  H8	9.935	32.802	32.781	 H	1	M5C1	0.000	
27	  H9	10.472	35.193	35.068	 H	1	M5C1	0.000	
28	 H10	7.110	35.530	38.026	 H	1	M5C1	0.000	
29	 H11	7.611	36.761	33.316	 H	1	M5C1	0.000	
30	 H11	4.785	36.747	33.433	 H	1	M5C1	0.000	
31	 H12	4.329	37.636	34.826	 H	1	M5C1	0.000	
32	 H13	5.468	38.292	33.726	 H	1	M5C1	0.000	
@<TRIPOS>BOND
1 1 3 1
2 1 4 1
3 1 20 1
4 1 21 1
5 2 13 ar
6 2 18 ar
7 3 19 1
8 4 7 1
9 4 10 1
10 4 22 1
11 5 13 ar
12 5 15 ar
13 5 28 1
14 6 7 1
15 6 24 1
16 7 9 1
17 7 23 1
18 8 9 1
19 8 26 1
20 9 11 1
21 9 25 1
22 10 11 1
23 2 11 1
24 11 27 1
25 12 13 2
26 14 15 2
27 15 16 ar
28 16 18 ar
29 16 17 1
30 17 30 1
31 17 31 1
32 17 32 1
33 18 29 1
@<TRIPOS>SUBSTRUCTURE
1	M5C1	1	GROUP	1 B	M5C
