@<TRIPOS>MOLECULE
****
222 230 1 0 0
SMALL
USER_CHARGES


@<TRIPOS>ATOM
      1 C         -22.1257   -2.3615    0.0979 C.3       1     ****    0.0000
      2 C         -23.0090   -1.3733    0.8153 C.3       1     ****    0.0000
      3 C         -23.4765   -0.4906   -0.3215 C.3       1     ****    0.0000
      4 O         -23.5362   -1.3196   -1.4909 O.3       1     ****    0.0000
      5 C         -22.8715   -2.5582   -1.2039 C.3       1     ****    0.0000
      6 O         -22.2854   -0.6394    1.7658 O.3       1     ****    0.0000
      7 O         -20.8456   -1.8340   -0.1229 O.3       1     ****    0.0000
      8 C         -23.8920   -3.6793   -1.0589 C.3       1     ****    0.0000
      9 O         -24.5749   -3.8504   -2.2714 O.3       1     ****    0.0000
     10 N         -26.8883   -0.3662    1.1991 N.am      1     ****    0.0000
     11 C         -25.9119   -0.8278    0.2224 C.2       1     ****    0.0000
     12 N         -24.7889    0.0504   -0.0259 N.am      1     ****    0.0000
     13 C         -24.9927    1.4034    0.0244 C.2       1     ****    0.0000
     14 C         -26.1495    1.9103    0.4662 C.2       1     ****    0.0000
     15 C         -27.2750    1.0183    0.9153 C.2       1     ****    0.0000
     16 O         -28.4105    1.4134    1.0328 O.2       1     ****    0.0000
     17 O         -26.0326   -1.8852   -0.3490 O.2       1     ****    0.0000
     18 C         -26.3277    3.3959    0.5147 C.3       1     ****    0.0000
     19 C         -25.0607    4.0766    0.0136 C.3       1     ****    0.0000
     20 C         -25.2399    5.5701    0.0624 C.3       1     ****    0.0000
     21 C         -26.6348    5.4151    0.6058 C.3       1     ****    0.0000
     22 N         -24.1624    6.3697    0.4364 N.2       1     ****    0.0000
     23 N         -24.7041    6.3503   -0.9596 N.2       1     ****    0.0000
     24 H         -21.9523   -3.3039    0.6641 H         1     ****    0.0000
     25 H         -23.8380   -1.8446    1.3893 H         1     ****    0.0000
     26 H         -22.7828    0.3664   -0.4738 H         1     ****    0.0000
     27 H         -22.1748   -2.8379   -2.0256 H         1     ****    0.0000
     28 H         -22.0267   -1.2444    2.4399 H         1     ****    0.0000
     29 H         -20.3495   -2.4976   -0.5712 H         1     ****    0.0000
     30 H         -23.3686   -4.6246   -0.7920 H         1     ****    0.0000
     31 H         -24.6189   -3.4178   -0.2577 H         1     ****    0.0000
     32 H         -25.1935   -4.5487   -2.1411 H         1     ****    0.0000
     33 H         -27.2482   -0.9220    1.9643 H         1     ****    0.0000
     34 H         -24.1932    2.0841   -0.3034 H         1     ****    0.0000
     35 H         -27.1854    3.6874   -0.1320 H         1     ****    0.0000
     36 H         -26.5283    3.7113    1.5630 H         1     ****    0.0000
     37 H         -24.2030    3.7850    0.6603 H         1     ****    0.0000
     38 H         -24.8601    3.7612   -1.0347 H         1     ****    0.0000
     39 H         -26.8735    4.3334    0.7134 H         1     ****    0.0000
     40 H         -26.7020    5.9101    1.6004 H         1     ****    0.0000
     41 H         -27.3600    5.8870   -0.0943 H         1     ****    0.0000
     42 C         -11.5647   -3.6212    0.0979 C.3       1     ****    0.0000
     43 C         -12.4481   -2.6330    0.8153 C.3       1     ****    0.0000
     44 C         -12.9155   -1.7503   -0.3215 C.3       1     ****    0.0000
     45 O         -12.9753   -2.5793   -1.4909 O.3       1     ****    0.0000
     46 C         -12.3105   -3.8179   -1.2039 C.3       1     ****    0.0000
     47 O         -11.7245   -1.8991    1.7658 O.3       1     ****    0.0000
     48 O         -10.2846   -3.0937   -0.1229 O.3       1     ****    0.0000
     49 C         -13.3311   -4.9391   -1.0589 C.3       1     ****    0.0000
     50 O         -14.0139   -5.1101   -2.2714 O.3       1     ****    0.0000
     51 N         -16.3273   -1.6259    1.1991 N.am      1     ****    0.0000
     52 C         -15.3509   -2.0875    0.2224 C.2       1     ****    0.0000
     53 N         -14.2279   -1.2093   -0.0259 N.am      1     ****    0.0000
     54 C         -14.4317    0.1437    0.0244 C.2       1     ****    0.0000
     55 C         -15.5885    0.6506    0.4662 C.2       1     ****    0.0000
     56 C         -16.7140   -0.2414    0.9153 C.2       1     ****    0.0000
     57 O         -17.8495    0.1537    1.0328 O.2       1     ****    0.0000
     58 O         -15.4717   -3.1449   -0.3490 O.2       1     ****    0.0000
     59 C         -15.7667    2.1362    0.5147 C.3       1     ****    0.0000
     60 O         -14.6004    2.7628    0.0534 O.3       1     ****    0.0000
     61 C         -14.8282    4.1444    0.1226 C.3       1     ****    0.0000
     62 C         -13.6075    4.8797   -0.3613 C.3       1     ****    0.0000
     63 C         -13.7253    6.1378   -1.0312 C.2       1     ****    0.0000
     64 C         -13.2545    6.1547    0.1822 C.2       1     ****    0.0000
     65 C         -14.1149    6.8984   -2.2602 C.3       1     ****    0.0000
     66 H         -11.3913   -4.5636    0.6641 H         1     ****    0.0000
     67 H         -13.2771   -3.1043    1.3893 H         1     ****    0.0000
     68 H         -12.2218   -0.8934   -0.4738 H         1     ****    0.0000
     69 H         -11.6139   -4.0976   -2.0256 H         1     ****    0.0000
     70 H         -11.4658   -2.5041    2.4399 H         1     ****    0.0000
     71 H          -9.7886   -3.7573   -0.5712 H         1     ****    0.0000
     72 H         -12.8076   -5.8843   -0.7920 H         1     ****    0.0000
     73 H         -14.0580   -4.6775   -0.2577 H         1     ****    0.0000
     74 H         -14.6326   -5.8084   -2.1411 H         1     ****    0.0000
     75 H         -16.6873   -2.1817    1.9643 H         1     ****    0.0000
     76 H         -13.6322    0.8244   -0.3034 H         1     ****    0.0000
     77 H         -16.6244    2.4277   -0.1320 H         1     ****    0.0000
     78 H         -15.9674    2.4516    1.5630 H         1     ****    0.0000
     79 H         -15.6985    4.4090   -0.5188 H         1     ****    0.0000
     80 H         -15.0415    4.4328    1.1762 H         1     ****    0.0000
     81 H         -13.1248    3.9225   -0.5352 H         1     ****    0.0000
     82 H         -12.8721    6.7231    1.0067 H         1     ****    0.0000
     83 H         -14.4924    6.1901   -3.0314 H         1     ****    0.0000
     84 H         -14.9147    7.6294   -2.0055 H         1     ****    0.0000
     85 H         -13.2280    7.4409   -2.6574 H         1     ****    0.0000
     86 C          -1.0038   -3.4913    0.0979 C.3       1     ****    0.0000
     87 C          -1.8872   -2.5031    0.8153 C.3       1     ****    0.0000
     88 C          -2.3546   -1.6204   -0.3215 C.3       1     ****    0.0000
     89 O          -2.4144   -2.4495   -1.4909 O.3       1     ****    0.0000
     90 C          -1.7496   -3.6881   -1.2039 C.3       1     ****    0.0000
     91 O          -1.1635   -1.7692    1.7658 O.3       1     ****    0.0000
     92 O           0.2763   -2.9638   -0.1229 O.3       1     ****    0.0000
     93 C          -2.7702   -4.8092   -1.0589 C.3       1     ****    0.0000
     94 O          -3.4530   -4.9802   -2.2714 O.3       1     ****    0.0000
     95 N          -5.7664   -1.4960    1.1991 N.am      1     ****    0.0000
     96 C          -4.7900   -1.9576    0.2224 C.2       1     ****    0.0000
     97 N          -3.6670   -1.0794   -0.0259 N.am      1     ****    0.0000
     98 C          -3.8708    0.2736    0.0244 C.2       1     ****    0.0000
     99 C          -5.0276    0.7805    0.4662 C.2       1     ****    0.0000
    100 C          -6.1531   -0.1115    0.9153 C.2       1     ****    0.0000
    101 O          -7.2886    0.2836    1.0328 O.2       1     ****    0.0000
    102 O          -4.9108   -3.0151   -0.3490 O.2       1     ****    0.0000
    103 C          -5.2058    2.2661    0.5147 C.3       1     ****    0.0000
    104 C          -3.9388    2.9467    0.0136 C.3       1     ****    0.0000
    105 C          -4.1202    4.4581    0.0630 C.3       1     ****    0.0000
    106 N          -2.8973    5.1151   -0.4206 N.2       1     ****    0.0000
    107 N          -2.8327    6.3677   -0.4631 N.2       1     ****    1.0000
    108 N          -2.7744    7.4995   -0.5015 N.2       1     ****   -1.0000
    109 H          -0.8304   -4.4337    0.6641 H         1     ****    0.0000
    110 H          -2.7161   -2.9744    1.3893 H         1     ****    0.0000
    111 H          -1.6609   -0.7635   -0.4738 H         1     ****    0.0000
    112 H          -1.0529   -3.9678   -2.0256 H         1     ****    0.0000
    113 H          -0.9048   -2.3742    2.4399 H         1     ****    0.0000
    114 H           0.7723   -3.6274   -0.5712 H         1     ****    0.0000
    115 H          -2.2467   -5.7544   -0.7920 H         1     ****    0.0000
    116 H          -3.4971   -4.5476   -0.2577 H         1     ****    0.0000
    117 H          -4.0717   -5.6785   -2.1411 H         1     ****    0.0000
    118 H          -6.1264   -2.0518    1.9643 H         1     ****    0.0000
    119 H          -3.0713    0.9543   -0.3034 H         1     ****    0.0000
    120 H          -6.0635    2.5576   -0.1320 H         1     ****    0.0000
    121 H          -5.4064    2.5815    1.5630 H         1     ****    0.0000
    122 H          -3.0812    2.6552    0.6603 H         1     ****    0.0000
    123 H          -3.7382    2.6313   -1.0347 H         1     ****    0.0000
    124 H          -4.9778    4.7496   -0.5837 H         1     ****    0.0000
    125 H          -4.3208    4.7735    1.1113 H         1     ****    0.0000
    126 C           9.5571   -1.1233    0.0979 C.3       1     ****    0.0000
    127 C           8.6738   -0.1351    0.8153 C.3       1     ****    0.0000
    128 C           8.2063    0.7476   -0.3215 C.3       1     ****    0.0000
    129 O           8.1465   -0.0815   -1.4909 O.3       1     ****    0.0000
    130 C           8.8113   -1.3200   -1.2039 C.3       1     ****    0.0000
    131 O           9.3974    0.5988    1.7658 O.3       1     ****    0.0000
    132 O          10.8372   -0.5958   -0.1229 O.3       1     ****    0.0000
    133 C           7.7907   -2.4412   -1.0589 C.3       1     ****    0.0000
    134 O           7.1079   -2.6122   -2.2714 O.3       1     ****    0.0000
    135 N           4.7945    0.8720    1.1991 N.am      1     ****    0.0000
    136 C           5.7709    0.4104    0.2224 C.2       1     ****    0.0000
    137 N           6.8939    1.2886   -0.0259 N.am      1     ****    0.0000
    138 C           6.6901    2.6416    0.0244 C.2       1     ****    0.0000
    139 C           5.5333    3.1485    0.4662 C.2       1     ****    0.0000
    140 C           4.4078    2.2565    0.9153 C.2       1     ****    0.0000
    141 O           3.2723    2.6516    1.0328 O.2       1     ****    0.0000
    142 O           5.6502   -0.6470   -0.3490 O.2       1     ****    0.0000
    143 C           5.3551    4.6341    0.5147 C.3       1     ****    0.0000
    144 H           9.7305   -2.0657    0.6641 H         1     ****    0.0000
    145 H           7.8448   -0.6064    1.3893 H         1     ****    0.0000
    146 H           8.9000    1.6045   -0.4738 H         1     ****    0.0000
    147 H           9.5080   -1.5997   -2.0256 H         1     ****    0.0000
    148 H           9.6561   -0.0062    2.4399 H         1     ****    0.0000
    149 H          11.3333   -1.2594   -0.5712 H         1     ****    0.0000
    150 H           8.3142   -3.3864   -0.7920 H         1     ****    0.0000
    151 H           7.0639   -2.1796   -0.2577 H         1     ****    0.0000
    152 H           6.4893   -3.3105   -2.1411 H         1     ****    0.0000
    153 H           4.4346    0.3162    1.9643 H         1     ****    0.0000
    154 H           7.4896    3.3223   -0.3034 H         1     ****    0.0000
    155 H           6.2810    5.1315    0.1485 H         1     ****    0.0000
    156 H           4.4974    4.9256   -0.1320 H         1     ****    0.0000
    157 H           5.1545    4.9495    1.5630 H         1     ****    0.0000
    158 C          20.1181   -1.9255    0.0979 C.3       1     ****    0.0000
    159 C          19.2347   -0.9373    0.8153 C.3       1     ****    0.0000
    160 C          18.7673   -0.0546   -0.3215 C.3       1     ****    0.0000
    161 O          18.7075   -0.8837   -1.4909 O.3       1     ****    0.0000
    162 C          19.3723   -2.1222   -1.2039 C.3       1     ****    0.0000
    163 O          19.9583   -0.2034    1.7658 O.3       1     ****    0.0000
    164 O          21.3981   -1.3980   -0.1229 O.3       1     ****    0.0000
    165 C          18.3517   -3.2434   -1.0589 C.3       1     ****    0.0000
    166 O          17.6688   -3.4144   -2.2714 O.3       1     ****    0.0000
    167 N          15.3555    0.0698    1.1991 N.am      1     ****    0.0000
    168 C          16.3319   -0.3918    0.2224 C.2       1     ****    0.0000
    169 N          17.4549    0.4864   -0.0259 N.am      1     ****    0.0000
    170 C          17.2511    1.8394    0.0244 C.2       1     ****    0.0000
    171 C          16.0943    2.3463    0.4662 C.2       1     ****    0.0000
    172 C          14.9688    1.4543    0.9153 C.2       1     ****    0.0000
    173 O          13.8333    1.8494    1.0328 O.2       1     ****    0.0000
    174 O          16.2111   -1.4492   -0.3490 O.2       1     ****    0.0000
    175 C          15.9380    3.6493    0.5087 C.1       1     ****    0.0000
    176 C          15.7937    4.8520    0.5480 C.1       1     ****    0.0000
    177 H          20.2915   -2.8679    0.6641 H         1     ****    0.0000
    178 H          18.4057   -1.4086    1.3893 H         1     ****    0.0000
    179 H          19.4610    0.8023   -0.4738 H         1     ****    0.0000
    180 H          20.0689   -2.4019   -2.0256 H         1     ****    0.0000
    181 H          20.2170   -0.8084    2.4399 H         1     ****    0.0000
    182 H          21.8942   -2.0616   -0.5712 H         1     ****    0.0000
    183 H          18.8751   -4.1886   -0.7920 H         1     ****    0.0000
    184 H          17.6248   -2.9818   -0.2577 H         1     ****    0.0000
    185 H          17.0502   -4.1127   -2.1411 H         1     ****    0.0000
    186 H          14.9955   -0.4860    1.9643 H         1     ****    0.0000
    187 H          18.0506    2.5201   -0.3034 H         1     ****    0.0000
    188 H          15.6639    5.9337    0.5833 H         1     ****    0.0000
    189 C          30.6790   -2.3953    0.0979 C.3       1     ****    0.0000
    190 C          29.7956   -1.4071    0.8153 C.3       1     ****    0.0000
    191 C          29.3282   -0.5244   -0.3215 C.3       1     ****    0.0000
    192 O          29.2684   -1.3535   -1.4909 O.3       1     ****    0.0000
    193 C          29.9332   -2.5920   -1.2039 C.3       1     ****    0.0000
    194 O          30.5193   -0.6732    1.7658 O.3       1     ****    0.0000
    195 O          31.9591   -1.8678   -0.1229 O.3       1     ****    0.0000
    196 C          28.9126   -3.7132   -1.0589 C.3       1     ****    0.0000
    197 O          28.2298   -3.8842   -2.2714 O.3       1     ****    0.0000
    198 N          25.9164   -0.4000    1.1991 N.am      1     ****    0.0000
    199 C          26.8928   -0.8616    0.2224 C.2       1     ****    0.0000
    200 N          28.0158    0.0166   -0.0259 N.am      1     ****    0.0000
    201 C          27.8120    1.3696    0.0244 C.2       1     ****    0.0000
    202 C          26.6552    1.8765    0.4662 C.2       1     ****    0.0000
    203 C          25.5297    0.9845    0.9153 C.2       1     ****    0.0000
    204 O          24.3942    1.3796    1.0328 O.2       1     ****    0.0000
    205 O          26.7720   -1.9190   -0.3490 O.2       1     ****    0.0000
    206 C          26.4770    3.3621    0.5147 C.3       1     ****    0.0000
    207 N          27.6999    4.0191    0.0311 N.2       1     ****    0.0000
    208 N          27.7644    5.2717   -0.0114 N.2       1     ****    1.0000
    209 N          27.8228    6.4035   -0.0498 N.2       1     ****   -1.0000
    210 H          30.8524   -3.3377    0.6641 H         1     ****    0.0000
    211 H          28.9667   -1.8784    1.3893 H         1     ****    0.0000
    212 H          30.0219    0.3325   -0.4738 H         1     ****    0.0000
    213 H          30.6299   -2.8717   -2.0256 H         1     ****    0.0000
    214 H          30.7780   -1.2782    2.4399 H         1     ****    0.0000
    215 H          32.4551   -2.5314   -0.5712 H         1     ****    0.0000
    216 H          29.4361   -4.6584   -0.7920 H         1     ****    0.0000
    217 H          28.1857   -3.4516   -0.2577 H         1     ****    0.0000
    218 H          27.6111   -4.5825   -2.1411 H         1     ****    0.0000
    219 H          25.5564   -0.9558    1.9643 H         1     ****    0.0000
    220 H          28.6115    2.0503   -0.3034 H         1     ****    0.0000
    221 H          25.6193    3.6536   -0.1320 H         1     ****    0.0000
    222 H          26.2764    3.6775    1.5630 H         1     ****    0.0000
@<TRIPOS>BOND
     1     1     2     1
     2     1     5     1
     3     1     7     1
     4     1    24     1
     5     2     3     1
     6     2     6     1
     7     2    25     1
     8     3     4     1
     9     3    12     1
    10     3    26     1
    11     4     5     1
    12     5     8     1
    13     5    27     1
    14     6    28     1
    15     7    29     1
    16     8     9     1
    17     8    30     1
    18     8    31     1
    19     9    32     1
    20    10    11     1
    21    10    15     1
    22    10    33     1
    23    11    12     1
    24    11    17     2
    25    12    13     1
    26    13    14     2
    27    13    34     1
    28    14    15     1
    29    14    18     1
    30    15    16     2
    31    18    19     1
    32    18    35     1
    33    18    36     1
    34    19    20     1
    35    19    37     1
    36    19    38     1
    37    20    21     1
    38    20    22     1
    39    20    23     1
    40    21    39     1
    41    21    40     1
    42    21    41     1
    43    22    23     2
    44    42    43     1
    45    42    46     1
    46    42    48     1
    47    42    66     1
    48    43    44     1
    49    43    47     1
    50    43    67     1
    51    44    45     1
    52    44    53     1
    53    44    68     1
    54    45    46     1
    55    46    49     1
    56    46    69     1
    57    47    70     1
    58    48    71     1
    59    49    50     1
    60    49    72     1
    61    49    73     1
    62    50    74     1
    63    51    52     1
    64    51    56     1
    65    51    75     1
    66    52    53     1
    67    52    58     2
    68    53    54     1
    69    54    55     2
    70    54    76     1
    71    55    56     1
    72    55    59     1
    73    56    57     2
    74    59    60     1
    75    59    77     1
    76    59    78     1
    77    60    61     1
    78    61    62     1
    79    61    79     1
    80    61    80     1
    81    62    63     1
    82    62    64     1
    83    62    81     1
    84    63    64     2
    85    63    65     1
    86    64    82     1
    87    65    83     1
    88    65    84     1
    89    65    85     1
    90    86    87     1
    91    86    90     1
    92    86    92     1
    93    86   109     1
    94    87    88     1
    95    87    91     1
    96    87   110     1
    97    88    89     1
    98    88    97     1
    99    88   111     1
   100    89    90     1
   101    90    93     1
   102    90   112     1
   103    91   113     1
   104    92   114     1
   105    93    94     1
   106    93   115     1
   107    93   116     1
   108    94   117     1
   109    95    96     1
   110    95   100     1
   111    95   118     1
   112    96    97     1
   113    96   102     2
   114    97    98     1
   115    98    99     2
   116    98   119     1
   117    99   100     1
   118    99   103     1
   119   100   101     2
   120   103   104     1
   121   103   120     1
   122   103   121     1
   123   104   105     1
   124   104   122     1
   125   104   123     1
   126   105   106     1
   127   105   124     1
   128   105   125     1
   129   106   107     2
   130   107   108     2
   131   126   127     1
   132   126   130     1
   133   126   132     1
   134   126   144     1
   135   127   128     1
   136   127   131     1
   137   127   145     1
   138   128   129     1
   139   128   137     1
   140   128   146     1
   141   129   130     1
   142   130   133     1
   143   130   147     1
   144   131   148     1
   145   132   149     1
   146   133   134     1
   147   133   150     1
   148   133   151     1
   149   134   152     1
   150   135   136     1
   151   135   140     1
   152   135   153     1
   153   136   137     1
   154   136   142     2
   155   137   138     1
   156   138   139     2
   157   138   154     1
   158   139   140     1
   159   139   143     1
   160   140   141     2
   161   143   155     1
   162   143   156     1
   163   143   157     1
   164   158   159     1
   165   158   162     1
   166   158   164     1
   167   158   177     1
   168   159   160     1
   169   159   163     1
   170   159   178     1
   171   160   161     1
   172   160   169     1
   173   160   179     1
   174   161   162     1
   175   162   165     1
   176   162   180     1
   177   163   181     1
   178   164   182     1
   179   165   166     1
   180   165   183     1
   181   165   184     1
   182   166   185     1
   183   167   168     1
   184   167   172     1
   185   167   186     1
   186   168   169     1
   187   168   174     2
   188   169   170     1
   189   170   171     2
   190   170   187     1
   191   171   172     1
   192   171   175     1
   193   172   173     2
   194   175   176     3
   195   176   188     1
   196   189   190     1
   197   189   193     1
   198   189   195     1
   199   189   210     1
   200   190   191     1
   201   190   194     1
   202   190   211     1
   203   191   192     1
   204   191   200     1
   205   191   212     1
   206   192   193     1
   207   193   196     1
   208   193   213     1
   209   194   214     1
   210   195   215     1
   211   196   197     1
   212   196   216     1
   213   196   217     1
   214   197   218     1
   215   198   199     1
   216   198   203     1
   217   198   219     1
   218   199   200     1
   219   199   205     2
   220   200   201     1
   221   201   202     2
   222   201   220     1
   223   202   203     1
   224   202   206     1
   225   203   204     2
   226   206   207     1
   227   206   221     1
   228   206   222     1
   229   207   208     2
   230   208   209     2
